obj01
  PyMOL2.5          3D                             0

 41 41  0  0  0  0  0  0  0  0999 V2000
   64.3796   20.4335    9.4411 H   0  0  0  0  0  0  0  0  0  0  0  0
   65.2797   21.7574    8.5987 H   0  0  0  0  0  0  0  0  0  0  0  0
   63.0608   22.0524    8.6370 H   0  0  0  0  0  0  0  0  0  0  0  0
   63.4285   23.9615   10.5059 H   0  0  0  0  0  0  0  0  0  0  0  0
   64.4867   22.4723   12.7243 H   0  0  0  0  0  0  0  0  0  0  0  0
   64.4707   24.8579   12.5028 H   0  0  0  0  0  0  0  0  0  0  0  0
   64.1504   25.7427   10.2350 H   0  0  0  0  0  0  0  0  0  0  0  0
   61.1146   20.8166    6.9493 H   0  0  0  0  0  0  0  0  0  0  0  0
   62.0441   19.6895    8.0500 H   0  0  0  0  0  0  0  0  0  0  0  0
   63.1530   20.2892    5.5498 H   0  0  0  0  0  0  0  0  0  0  0  0
   61.5199   19.2527    5.5620 H   0  0  0  0  0  0  0  0  0  0  0  0
   64.1070   18.7942    6.4635 H   0  0  0  0  0  0  0  0  0  0  0  0
   62.6636   17.7544    6.4156 H   0  0  0  0  0  0  0  0  0  0  0  0
   63.3779   18.3566    4.9001 H   0  0  0  0  0  0  0  0  0  0  0  0
   67.0800   24.1057   11.2463 H   0  0  0  0  0  0  0  0  0  0  0  0
   67.8264   25.9975   11.9788 H   0  0  0  0  0  0  0  0  0  0  0  0
   66.1202   26.4557   12.1931 H   0  0  0  0  0  0  0  0  0  0  0  0
   67.0477   25.8082   13.5678 H   0  0  0  0  0  0  0  0  0  0  0  0
   70.0240   23.0286   12.5934 H   0  0  0  0  0  0  0  0  0  0  0  0
   68.7040   23.4189   11.4655 H   0  0  0  0  0  0  0  0  0  0  0  0
   69.2581   24.6342   12.6426 H   0  0  0  0  0  0  0  0  0  0  0  0
   65.7780   21.6200   10.9100 S   0  0  0  0  0  0  0  0  0  0  0  0
   64.7140   21.4700    9.4850 C   0  0  0  0  0  0  0  0  0  0  0  0
   63.6150   22.2380    9.5570 C   0  0  0  0  0  0  0  0  0  0  0  0
   63.5060   22.9860   10.7560 N   0  0  0  0  0  0  0  0  0  0  0  0
   64.6280   22.8510   11.7120 C   0  0  0  0  0  0  0  0  0  0  0  0
   65.0670   24.3170   11.7680 C   0  0  0  0  0  0  0  0  0  0  0  0
   64.8880   24.9530   10.3780 C   0  0  0  0  0  0  0  0  0  0  0  0
   65.5740   24.5750    9.4240 O   0  0  0  0  0  0  0  0  0  0  0  0
   62.5890   22.3260    8.5010 C   0  0  0  0  0  0  0  0  0  0  0  0
   61.5950   23.0010    8.4960 O   0  0  0  0  0  0  0  0  0  0  0  0
   62.9710   21.4980    7.5450 O   0  0  0  0  0  0  0  0  0  0  0  0
   62.0760   20.3660    7.1960 C   0  0  0  0  0  0  0  0  0  0  0  0
   62.4660   19.5720    5.9990 C   0  0  0  0  0  0  0  0  0  0  0  0
   63.1700   18.5960    5.9430 C   0  0  0  0  0  0  0  0  0  0  0  0
   66.4770   24.3600   12.1180 C   0  0  0  0  0  0  0  0  0  0  0  0
   66.8960   25.7500   12.4900 C   0  0  0  0  0  0  0  0  0  0  0  0
   66.7850   23.3390   13.1280 O   0  0  0  0  0  0  0  0  0  0  0  0
   68.0990   23.0690   13.4580 C   0  0  0  0  0  0  0  0  0  0  0  0
   68.4450   22.4420   14.4330 O   0  0  0  0  0  0  0  0  0  0  0  0
   69.0860   23.5710   12.4750 C   0  0  0  0  0  0  0  0  0  0  0  0
 22 23  1  0  0  0  0
 22 26  1  0  0  0  0
  1 23  1  0  0  0  0
  2 23  1  0  0  0  0
 23 24  1  0  0  0  0
  3 24  1  0  0  0  0
 24 25  1  0  0  0  0
 24 30  1  0  0  0  0
  4 25  1  0  0  0  0
 25 26  1  0  0  0  0
  5 26  1  0  0  0  0
 26 27  1  0  0  0  0
  6 27  1  0  0  0  0
 27 28  1  0  0  0  0
 27 36  1  0  0  0  0
  7 28  1  0  0  0  0
 28 29  2  0  0  0  0
 30 31  2  0  0  0  0
 30 32  1  0  0  0  0
 32 33  1  0  0  0  0
  8 33  1  0  0  0  0
  9 33  1  0  0  0  0
 33 34  1  0  0  0  0
 10 34  1  0  0  0  0
 11 34  1  0  0  0  0
 34 35  1  0  0  0  0
 12 35  1  0  0  0  0
 13 35  1  0  0  0  0
 14 35  1  0  0  0  0
 15 36  1  0  0  0  0
 36 37  1  0  0  0  0
 36 38  1  0  0  0  0
 16 37  1  0  0  0  0
 17 37  1  0  0  0  0
 18 37  1  0  0  0  0
 38 39  1  0  0  0  0
 39 40  2  0  0  0  0
 39 41  1  0  0  0  0
 19 41  1  0  0  0  0
 20 41  1  0  0  0  0
 21 41  1  0  0  0  0
M  END
$$$$
