obj01
  PyMOL2.5          3D                             0

 41 41  0  0  0  0  0  0  0  0999 V2000
    0.5430   -5.3171   -0.7310 H   0  0  0  0  0  0  0  0  0  0  0  0
    1.4439   -3.9941   -1.5739 H   0  0  0  0  0  0  0  0  0  0  0  0
   -0.7750   -3.6984   -1.5370 H   0  0  0  0  0  0  0  0  0  0  0  0
   -0.4077   -1.7880    0.3306 H   0  0  0  0  0  0  0  0  0  0  0  0
    0.6489   -3.2757    2.5507 H   0  0  0  0  0  0  0  0  0  0  0  0
    0.6337   -0.8902    2.3273 H   0  0  0  0  0  0  0  0  0  0  0  0
    0.3147   -0.0072    0.0587 H   0  0  0  0  0  0  0  0  0  0  0  0
   -2.7205   -4.9350   -3.2247 H   0  0  0  0  0  0  0  0  0  0  0  0
   -1.7920   -6.0616   -2.1226 H   0  0  0  0  0  0  0  0  0  0  0  0
   -0.6816   -5.4641   -4.6228 H   0  0  0  0  0  0  0  0  0  0  0  0
   -2.3150   -6.5002   -4.6106 H   0  0  0  0  0  0  0  0  0  0  0  0
    0.2718   -6.9584   -3.7079 H   0  0  0  0  0  0  0  0  0  0  0  0
   -1.1719   -7.9980   -3.7548 H   0  0  0  0  0  0  0  0  0  0  0  0
   -0.4573   -7.3976   -5.2708 H   0  0  0  0  0  0  0  0  0  0  0  0
    3.2434   -1.6441    1.0728 H   0  0  0  0  0  0  0  0  0  0  0  0
    3.9896    0.2482    1.8039 H   0  0  0  0  0  0  0  0  0  0  0  0
    2.2835    0.7068    2.0176 H   0  0  0  0  0  0  0  0  0  0  0  0
    3.2108    0.0601    3.3929 H   0  0  0  0  0  0  0  0  0  0  0  0
    6.1864   -2.7209    2.4223 H   0  0  0  0  0  0  0  0  0  0  0  0
    4.8671   -2.3312    1.2934 H   0  0  0  0  0  0  0  0  0  0  0  0
    5.4209   -1.1151    2.4698 H   0  0  0  0  0  0  0  0  0  0  0  0
    1.9409   -4.1298    0.7378 S   0  0  0  0  0  0  0  0  0  0  0  0
    0.8776   -4.2806   -0.6877 C   0  0  0  0  0  0  0  0  0  0  0  0
   -0.2212   -3.5123   -0.6169 C   0  0  0  0  0  0  0  0  0  0  0  0
   -0.3306   -2.7633    0.5815 N   0  0  0  0  0  0  0  0  0  0  0  0
    0.7908   -2.8978    1.5382 C   0  0  0  0  0  0  0  0  0  0  0  0
    1.2302   -1.4319    1.5933 C   0  0  0  0  0  0  0  0  0  0  0  0
    1.0521   -0.7969    0.2027 C   0  0  0  0  0  0  0  0  0  0  0  0
    1.7385   -1.1759   -0.7507 O   0  0  0  0  0  0  0  0  0  0  0  0
   -1.2466   -3.4248   -1.6735 C   0  0  0  0  0  0  0  0  0  0  0  0
   -2.2404   -2.7496   -1.6795 O   0  0  0  0  0  0  0  0  0  0  0  0
   -0.8643   -4.2537   -2.6286 O   0  0  0  0  0  0  0  0  0  0  0  0
   -1.7594   -5.3857   -2.9772 C   0  0  0  0  0  0  0  0  0  0  0  0
   -1.3690   -6.1808   -4.1734 C   0  0  0  0  0  0  0  0  0  0  0  0
   -0.6652   -7.1570   -4.2282 C   0  0  0  0  0  0  0  0  0  0  0  0
    2.6400   -1.3890    1.9440 C   0  0  0  0  0  0  0  0  0  0  0  0
    3.0592    0.0012    2.3151 C   0  0  0  0  0  0  0  0  0  0  0  0
    2.9472   -2.4093    2.9549 O   0  0  0  0  0  0  0  0  0  0  0  0
    4.2610   -2.6793    3.2858 C   0  0  0  0  0  0  0  0  0  0  0  0
    4.6063   -3.3057    4.2615 O   0  0  0  0  0  0  0  0  0  0  0  0
    5.2486   -2.1784    2.3030 C   0  0  0  0  0  0  0  0  0  0  0  0
 22 23  1  0  0  0  0
 22 26  1  0  0  0  0
  1 23  1  0  0  0  0
  2 23  1  0  0  0  0
 23 24  1  0  0  0  0
  3 24  1  0  0  0  0
 24 25  1  0  0  0  0
 24 30  1  0  0  0  0
  4 25  1  0  0  0  0
 25 26  1  0  0  0  0
  5 26  1  0  0  0  0
 26 27  1  0  0  0  0
  6 27  1  0  0  0  0
 27 28  1  0  0  0  0
 27 36  1  0  0  0  0
  7 28  1  0  0  0  0
 28 29  2  0  0  0  0
 30 31  2  0  0  0  0
 30 32  1  0  0  0  0
 32 33  1  0  0  0  0
  8 33  1  0  0  0  0
  9 33  1  0  0  0  0
 33 34  1  0  0  0  0
 10 34  1  0  0  0  0
 11 34  1  0  0  0  0
 34 35  1  0  0  0  0
 12 35  1  0  0  0  0
 13 35  1  0  0  0  0
 14 35  1  0  0  0  0
 15 36  1  0  0  0  0
 36 37  1  0  0  0  0
 36 38  1  0  0  0  0
 16 37  1  0  0  0  0
 17 37  1  0  0  0  0
 18 37  1  0  0  0  0
 38 39  1  0  0  0  0
 39 40  2  0  0  0  0
 39 41  1  0  0  0  0
 19 41  1  0  0  0  0
 20 41  1  0  0  0  0
 21 41  1  0  0  0  0
M  END
$$$$
