docked_penem_1b12_chainA
  PyMOL2.5          3D                             0

 35 36  0  0  0  0  0  0  0  0999 V2000
   69.6866   19.4713   15.9698 H   0  0  0  0  0  0  0  0  0  0  0  0
   65.6862   20.1562    9.1003 H   0  0  0  0  0  0  0  0  0  0  0  0
   64.9792   20.9437   13.0924 H   0  0  0  0  0  0  0  0  0  0  0  0
   66.2332   23.0725   13.9582 H   0  0  0  0  0  0  0  0  0  0  0  0
   63.8937   22.0980    6.1529 H   0  0  0  0  0  0  0  0  0  0  0  0
   66.0282   23.0190    5.2613 H   0  0  0  0  0  0  0  0  0  0  0  0
   64.8015   25.6160    6.3171 H   0  0  0  0  0  0  0  0  0  0  0  0
   68.3482   22.0930   12.2930 H   0  0  0  0  0  0  0  0  0  0  0  0
   68.6612   24.2377   14.3171 H   0  0  0  0  0  0  0  0  0  0  0  0
   68.6524   20.7524   16.6470 H   0  0  0  0  0  0  0  0  0  0  0  0
   63.5279   23.6074    6.9851 H   0  0  0  0  0  0  0  0  0  0  0  0
   66.2297   25.3966    5.1020 H   0  0  0  0  0  0  0  0  0  0  0  0
   67.8280   24.7404   12.8262 H   0  0  0  0  0  0  0  0  0  0  0  0
   70.3013   21.1364   16.0987 H   0  0  0  0  0  0  0  0  0  0  0  0
   69.4580   24.0315   12.7392 H   0  0  0  0  0  0  0  0  0  0  0  0
   66.4800   20.1750   11.4810 S   0  0  0  0  0  0  0  0  0  0  0  0
   65.6630   20.7280   10.0280 C   0  0  0  0  0  0  0  0  0  0  0  0
   65.0110   21.8910   10.1260 C   0  0  0  0  0  0  0  0  0  0  0  0
   65.0130   22.4620   11.3740 N   0  0  0  0  0  0  0  0  0  0  0  0
   65.5580   21.5340   12.3820 C   0  0  0  0  0  0  0  0  0  0  0  0
   66.3850   22.7200   12.9380 C   0  0  0  0  0  0  0  0  0  0  0  0
   65.9280   23.4440   11.6620 C   0  0  0  0  0  0  0  0  0  0  0  0
   66.2880   24.4210   11.0470 O   0  0  0  0  0  0  0  0  0  0  0  0
   64.3130   22.5740    9.0040 C   0  0  0  0  0  0  0  0  0  0  0  0
   63.2430   23.1530    9.1200 O   0  0  0  0  0  0  0  0  0  0  0  0
   65.0250   22.4490    7.8560 O   0  0  0  0  0  0  0  0  0  0  0  0
   64.3340   22.9310    6.7010 C   0  0  0  0  0  0  0  0  0  0  0  0
   65.3440   23.6340    5.8460 C   0  0  0  0  0  0  0  0  0  0  0  0
   65.4660   24.9650    5.7490 C   0  0  0  0  0  0  0  0  0  0  0  0
   67.8910   22.6110   13.1360 C   0  0  0  0  0  0  0  0  0  0  0  0
   68.5030   24.0050   13.2640 C   0  0  0  0  0  0  0  0  0  0  0  0
   68.1000   21.9150   14.3870 O   0  0  0  0  0  0  0  0  0  0  0  0
   68.8940   20.8270   14.5350 C   0  0  0  0  0  0  0  0  0  0  0  0
   69.1800   20.1300   13.5670 O   0  0  0  0  0  0  0  0  0  0  0  0
   69.4190   20.5260   15.9060 C   0  0  0  0  0  0  0  0  0  0  0  0
 16 17  1  0  0  0  0
 16 20  1  0  0  0  0
  2 17  1  0  0  0  0
 17 18  2  0  0  0  0
 18 19  1  0  0  0  0
 18 24  1  0  0  0  0
 19 20  1  0  0  0  0
 19 22  1  0  0  0  0
  3 20  1  0  0  0  0
 20 21  1  0  0  0  0
  4 21  1  0  0  0  0
 21 22  1  0  0  0  0
 21 30  1  0  0  0  0
 22 23  2  0  0  0  0
 24 25  2  0  0  0  0
 24 26  1  0  0  0  0
 26 27  1  0  0  0  0
  5 27  1  0  0  0  0
 11 27  1  0  0  0  0
 27 28  1  0  0  0  0
  6 28  1  0  0  0  0
 28 29  2  0  0  0  0
  7 29  1  0  0  0  0
 12 29  1  0  0  0  0
  8 30  1  0  0  0  0
 30 31  1  0  0  0  0
 30 32  1  0  0  0  0
  9 31  1  0  0  0  0
 13 31  1  0  0  0  0
 15 31  1  0  0  0  0
 32 33  1  0  0  0  0
 33 34  2  0  0  0  0
 33 35  1  0  0  0  0
  1 35  1  0  0  0  0
 10 35  1  0  0  0  0
 14 35  1  0  0  0  0
M  END
$$$$
